/*--------------------------------*- C++ -*----------------------------------*\
| =========                 |                                                 |
| \\      /  F ield         | OpenFOAM: The Open Source CFD Toolbox           |
|  \\    /   O peration     | Version:  4.1                                   |
|   \\  /    A nd           | Web:      www.OpenFOAM.org                      |
|    \\/     M anipulation  |                                                 |
\*---------------------------------------------------------------------------*/
FoamFile
{
    version     2.0;
    format      ascii;
    class       volScalarField;
    location    "0";
    object      k;
}
// * * * * * * * * * * * * * * * * * * * * * * * * * * * * * * * * * * * * * //

dimensions      [0 2 -2 0 0 0 0];

internalField   uniform 51.945232;

boundaryField
{

    INLET
    {
        type            turbulentIntensityKineticEnergyInlet;
        intensity       0.02;
        value           uniform 51.9452321;
    }
    OUTLET
    {
        type            zeroGradient;
    }
    SURFACE_WING
    {
        type            kqRWallFunction;
        value           uniform 51.945232;
    }
	SYMMETRY
	{
		type			symmetryPlane;
	}
}


// ************************************************************************* //
