/*--------------------------------*- C++ -*----------------------------------*\
| =========                 |                                                 |
| \\      /  F ield         | OpenFOAM: The Open Source CFD Toolbox           |
|  \\    /   O peration     | Version:  4.1                                   |
|   \\  /    A nd           | Web:      www.OpenFOAM.org                      |
|    \\/     M anipulation  |                                                 |
\*---------------------------------------------------------------------------*/
FoamFile
{
    version     2.0;
    format      ascii;
    class       volScalarField;
    object      T;
}
// * * * * * * * * * * * * * * * * * * * * * * * * * * * * * * * * * * * * * //

dimensions      [0 0 0 1 0 0 0];

internalField   uniform 305.7335559;

boundaryField
{

    INLET
    {
        type            fixedValue;
        value           uniform 305.7335559;
    }

    OUTLET
    {
        type            inletOutlet;
        //type            zeroGradient;
        value           uniform 305.7335559;
        inletValue      uniform 305.7335559;
    }
    SURFACE_WING
    {
        type            zeroGradient;
    }
	SYMMETRY
	{
		type 			symmetryPlane;
	}	
}

// ************************************************************************* //
