/*--------------------------------*- C++ -*----------------------------------*\
| =========                 |                                                 |
| \\      /  F ield         | OpenFOAM: The Open Source CFD Toolbox           |
|  \\    /   O peration     | Version:  4.1                                   |
|   \\  /    A nd           | Web:      www.OpenFOAM.org                      |
|    \\/     M anipulation  |                                                 |
\*---------------------------------------------------------------------------*/
FoamFile
{
    version     2.0;
    format      ascii;
    class       volVectorField;
    object      U;
}
// * * * * * * * * * * * * * * * * * * * * * * * * * * * * * * * * * * * * * //

dimensions      [0 1 -1 0 0 0 0];

internalField   uniform (293.817428 15.7068659542 0);

boundaryField
{

    INLET
    {
        type            fixedValue;
		value           uniform (293.817428 15.7068659542 0);
    }
    OUTLET
    {
        type            fixedValue;
		value           uniform (293.817428 15.7068659542 0);
    }
    SURFACE_WING
    {
        type            noSlip;
    }
	SYMMETRY
	{
		type 			symmetryPlane;
	}		
}


// ************************************************************************* //
